<additional>
	<busStop id="601stop1" lane="679469626#0_0" startPos="30" endPos="45"/>
	<busStop id="601stop2" lane="807418425#1_0" startPos="79" endPos="94"/>
</additional>