<routes>

<!--	<busStop id="<BUS_STOP_ID>" lane="<LANE_ID>" startPos="<STARTING_POSITION>" endPos="<ENDING_POSITION>" [lines="<LINE_ID>[ <LINE_ID>]*"]/>
-->
			
	<busStop id="601stop1" lane="679469626#0_0" startPos="30" endPos="45"/>
	<busStop id="601stop2" lane="807418425#1_0" startPos="38" endPos="46"/>
	
	<vType id="Bus" accel="2.6" decel="4.5" length="12" color="1,0,0" vClass="bus" guiShape="bus"/>
	
<!--	<vehicle id="0" type="Bus" depart="5">
-->		
		<route id="601route" edges="679469626#0 679469626#1 679469626#2 679193451 679193452 679469629 4612649 791849036 202904759 763416697#0 763416697#1 763416697#2
			198691699#0 198691699#1 198691699#2 198691699#3 792597607#0 792597607#1 794258388 792597606 573676801 794258389#0 794258389#1 794258389#2 198691696 
			794269737 792153597 767369896#0 767369896#1 767369896#2 237508424 139327105#0 139327105#1 167571364 44348023#0 44348023#1 139327110 10539028#0 10539028#1 
			493547206#0 493547206#1 807418425#0 807418425#1 807418425#2 815582706 493547204 44348551#0 44348551#1 4707776 165828381 139327106 794265310 776576197 
			139327098#0 139327098#1 139327098#2 288985250 784545154#0 784545154#1 784545153 202904794 792597602#0 792597602#1 573676800 794258390#0 794258390#1 
			794258390#2 791849034#0 791849034#1 791849034#2 791849034#3 791849034#4 791849034#5 83687002 5229764#0 5229764#1
			791849037 198691695#0 198691695#1 198691695#2 198691695#3 198691695#4 198691695#5 198691798 679469626#0">
	
			<stop busStop="601stop1" until="10"/>
			<stop busStop="601stop2" until="300"/>
			<stop busStop="601stop1" until="600"/>
			
		</route>
	
		<flow id="bus" route="601route" line="bus" begin="5" end="1000" period="100" />
	
<!--	</vehicle>
-->
</routes>

<!--
add these to beginning of route
679469626#0 679469626#1 679469626#2 679193451

679469626#2 679193450#0

813332692
679193450#1
-813332692

27415949_0 27415949_4 27415949_8 27415949_11

679193450#2
23713650#5
165171774#13

48333890 679193453 679193452

679469626#2
679193452
-->