<routes>

	<vType id="bus" accel="2.6" decel="4.5" length="12" color="1,0,0" vClass="bus" guiShape="bus"/>

<!--	<busStop id="<BUS_STOP_ID>" lane="<LANE_ID>" startPos="<STARTING_POSITION>" endPos="<ENDING_POSITION>" [lines="<LINE_ID>[ <LINE_ID>]*"]/>
-->

<!--
      ROUTE file
        displays the lanes the bus will take through its route from chadstone shopping cnetre to monash bus interchange

            807418425#1

            -787851477 787448090#0 787448090#1 807426789 -638398362#2
-->

	<route id="busroute" edges="-787851477 787448090#0 787448090#1 807426789 -638398362#2 -638398362#1
    -638398362#0 814105115#0 814105115#1 814105114 198133694#0 198133694#1 198133694#2 198133694#3 198133694#4 198134599#0 198134599#1 198134598#0 198134598#1 198134598#2 198134598#3
    782399755 144987843#0 144987843#1 180708618 211260230 180708619 782395452#0 782395452#1 713493692#0 713493692#1 791668582 4419370#0 4419370#1 4419370#2 4419370#3 4419370#4 15475366#0 15475366#1 48718672 167571335
    48718680#0 48718680#1 48718680#2 167571359#0 167571359#1 198692245#0 198692245#1 88463238#2 88463238#3 88463238#4 88463238#5 88463238#6 45022884#0 45022884#1 229376392#0 229376392#1 11588123#0 11588123#1 11588123#2
    11588123#3 11588123#4 -229376392#1 -229376392#0 229376385#0 229376385#1 88463238#1 88463238#2 88463238#3 229376387#0 229376387#1 -66793003#1 -66793003#0 -45023071 -23714110#1 -23714110#0 45023005#2 45023005#3 4868063#0
    4868063#1 4868063#2 178932596#0 178932596#1 178932594#0 178932594#1 178931858#0  178931858#1 -178933894#1 -178933894#0 178931861#0 178931861#1 -178933462#1 -178933462#0 178931860#0 178931860#1 -178933463#1 -178933463#0
    178931857#0 178931857#1 178933466#0 178933466#1 165171774#0 165171774#1 165171774#2 165171774#3 165171774#4 165171774#5 165171774#6 165171774#7 165171774#8 165171774#9 165171774#10 165171774#11 165171774#12 165171774#13
    48333890 679193453 679193452 679193449 679469626#0 679469626#1 679469626#2 679193451 679193452 679469629 4612649 791849036 202904759 763416697#0 763416697#1 763416697#2 198691699#0 198691699#1 198691699#2 198691699#3
    792597607#0 792597607#1 794258388 792597606 573676801 794258389#0 794258389#1 794258389#2 198691696 794269737 792153597 767369896#0 767369896#1 767369896#2 237508424 139327105#0 139327105#1 167571364 44348023#0 44348023#1
    139327110 10539028#0 10539028#1 493547206#0 493547206#1 807418425#0 807418425#1">

<!--  the bus stops are located in the additional file
      the until value will need to be determined later during simulated testing
      will need to check bus times on ptv and determine average times between stops
      can probably code it so after it leaves the first stop, the other stops will be
      offset but a fixed value
      Fixed offset values
      s1 = 0 minutes  = 0s
      s2 = 9 minutes  = 540s
      s3 = 9 minutes  = 540s
      s4 = 12 minutes = 720s
      s5 = 17 minutes = 1020s
      s6 = 17 minutes = 1020s
      s7 = 20 minutes = 1200s
      s8 = 24 minutes = 1440s
			<stop busStop="r1s1" until="20"/>
  		<stop busStop="r1s2" until="250"/>
  		<stop busStop="r1s3" until="390"/>
      <stop busStop="r1s4" until="490"/>
  		<stop busStop="r1s5" until="600"/>
      <stop busStop="r1s6" until="700"/>
  		<stop busStop="r1s7" until="780"/>
      <stop busStop="r1s8" until="840"/>
-->
  		<stop busStop="r1s1" duration="20"/>
  		<stop busStop="r1s2" duration="20"/>
  		<stop busStop="r1s3" duration="20"/>
      <stop busStop="r1s4" duration="20"/>
  		<stop busStop="r1s5" duration="20"/>
      <stop busStop="r1s6" duration="20"/>
  		<stop busStop="r1s7" duration="20"/>
      <stop busStop="r1s8" duration="20"/>

	</route>

<!--	<trip="bus" from=
-->
<!--	<vehicle id="bus" route="601route" line="bus" begin="5" end="1000" period="100" />
-->
<!--	</vehicle>
-->

	<flow type="bus" line="bus" id="bus_flow" begin="2" route="busroute" end="9000" vehsPerHour="10"/>

<!--
        Note
        To get ppl figures at bus stops, u need the walk command
        if u exclude the walk command, the person will wait for the bus but will not be tracked in the bus stop numbers
        for now going with the 2nd option where ppl are not tracked at the bus stop

-->
  <!--  OPTION 2  -->
	<personFlow id="BusPerson_0" begin="0" end="9000" personsPerHour="60" departPos="37">
		<ride from="-787851477" busStop="r1s8" lines="bus"/>
	</personFlow>

<!--   OPTION 1 -->
<!--
  <personFlow id="BusPerson_0" begin="0" end="9000" personsPerHour="25" departPos="33">
    <walk from="-787851477" busStop="r1s1"/>
		<ride busStop="r1s8" lines="bus"/>
	</personFlow>
-->

	<personFlow id="BusPerson_1" begin="0" end="9000" personsPerHour="25" departPos="49">
		<ride from="229376392#0" busStop="r1s8" lines="bus"/>
	</personFlow>

  <personFlow id="BusPerson_2" begin="0" end="9000" personsPerHour="10" departPos="40">
  	<ride from="178932594#1" busStop="r1s8" lines="bus"/>
  </personFlow>

  <personFlow id="BusPerson_3" begin="0" end="9000" personsPerHour="10" departPos="40">
  	<ride from="165171774#0" busStop="r1s8" lines="bus"/>
  </personFlow>

  <personFlow id="BusPerson_4" begin="0" end="9000" personsPerHour="20" departPos="44">
    <ride from="679469626#0" busStop="r1s8" lines="bus"/>
  </personFlow>

  <personFlow id="BusPerson_5" begin="0" end="9000" personsPerHour="10" departPos="40">
    <ride from="198691699#0" busStop="r1s8" lines="bus"/>
  </personFlow>

  <personFlow id="BusPerson_6" begin="0" end="9000" personsPerHour="10" departPos="30">
    	<ride from="198691696" busStop="r1s8" lines="bus"/>
  </personFlow>


</routes>
